[Format]      =  1
[Precision]   =  1e-008
[MinAngle]    =  30
[DoSmartMesh] =  1
[Depth]       =  30
[LengthUnits] =  centimeters
[ProblemType] =  axisymmetric
[Coordinates] =  cartesian
[Comment]     =  "Add comments here."
[PointProps]   = 0
[BdryProps]   = 1
  <BeginBdry>
    <BdryName> = "Fixed Voltage"
    <BdryType> = 0
    <Vs> = 0.5
    <qs> = 0
    <c0> = 0
    <c1> = 0
  <EndBdry>
[BlockProps]  = 2
  <BeginBlock>
    <BlockName> = "air"
    <ex> = 1
    <ey> = 1
    <qv> = 0
  <EndBlock>
  <BeginBlock>
    <BlockName> = "dielectric"
    <ex> = 3
    <ey> = 3
    <qv> = 0
  <EndBlock>
[ConductorProps]  = 2
  <BeginConductor>
    <ConductorName> = "anode"
    <Vc> = 1
    <qc> = 0
    <ConductorType> = 1
  <EndConductor>
  <BeginConductor>
    <ConductorName> = "cathode"
    <Vc> = 0
    <qc> = 0
    <ConductorType> = 1
  <EndConductor>
[NumPoints] = 27
0	-0.45000000000000001	0	0	0
18	-0.45000000000000001	0	0	0
18	-0.5	0	0	0
0	-0.5	0	0	0
0	-0.090000000000000011	0	0	0
0.90000000000000002	-0.089630346171920533	0	0	0
1.8	-0.088526847877511944	0	0	0
2.7000000000000002	-0.086705798580370447	0	0	0
3.6000000000000001	-0.084194035540977527	0	0	0
4.5	-0.081028468454139552	0	0	0
5.4000000000000004	-0.077255432220072598	0	0	0
6.2999999999999998	-0.072929876220877973	0	0	0
7.2000000000000002	-0.068114405577659132	0	0	0
8.0999999999999996	-0.06287819265597909	0	0	0
9	-0.057295779513082332	0	0	0
9.9000000000000004	-0.051445793991255616	0	0	0
10.800000000000001	-0.045409603718439433	0	0	0
11.700000000000001	-0.03926993334970353	0	0	0
12.6	-0.033109470951459684	0	0	0
13.5	-0.027009489484713187	0	0	0
14.4	-0.021048508885244385	0	0	0
15.300000000000001	-0.015301023278888905	0	0	0
16.199999999999999	-0.0098363164308346643	0	0	0
17.100000000000001	-0.0047173866406273858	0	0	0
18	-3.5083546492674389e-018	0	0	0
0	-90	0	0	0
0	90	0	0	0
[NumSegments] = 27
0	1	-1	0	0	0	0
1	2	-1	0	0	0	0
2	3	0.25	0	0	0	2
3	0	-1	0	0	0	0
4	5	0.25	0	0	0	1
5	6	0.25	0	0	0	1
6	7	0.25	0	0	0	1
7	8	0.25	0	0	0	1
8	9	0.25	0	0	0	1
9	10	0.25	0	0	0	1
10	11	0.25	0	0	0	1
11	12	0.25	0	0	0	1
12	13	0.25	0	0	0	1
13	14	0.25	0	0	0	1
14	15	0.25	0	0	0	1
15	16	0.25	0	0	0	1
16	17	0.25	0	0	0	1
17	18	0.25	0	0	0	1
18	19	0.25	0	0	0	1
19	20	0.25	0	0	0	1
20	21	0.25	0	0	0	1
21	22	0.25	0	0	0	1
22	23	0.25	0	0	0	1
23	24	0.25	0	0	0	1
25	3	-1	0	0	0	0
0	4	-1	0	0	0	0
4	26	-1	0	0	0	0
[NumArcSegments] = 1
25	26	180	2.5	1	0	0	0	1
[NumHoles] = 0
[NumBlockLabels] = 2
10	10	1	1	0	0
9	-0.47499999999999998	2	1	0	0
