[Format]      =  1
[Precision]   =  1e-008
[MinAngle]    =  30
[DoSmartMesh] =  1
[Depth]       =  30
[LengthUnits] =  centimeters
[ProblemType] =  axisymmetric
[Coordinates] =  cartesian
[Comment]     =  "Add comments here."
[PointProps]   = 0
[BdryProps]   = 1
  <BeginBdry>
    <BdryName> = "Fixed Voltage"
    <BdryType> = 0
    <Vs> = 0.5
    <qs> = 0
    <c0> = 0
    <c1> = 0
  <EndBdry>
[BlockProps]  = 2
  <BeginBlock>
    <BlockName> = "air"
    <ex> = 1
    <ey> = 1
    <qv> = 0
  <EndBlock>
  <BeginBlock>
    <BlockName> = "dielectric"
    <ex> = 3
    <ey> = 3
    <qv> = 0
  <EndBlock>
[ConductorProps]  = 2
  <BeginConductor>
    <ConductorName> = "anode"
    <Vc> = 1
    <qc> = 0
    <ConductorType> = 1
  <EndConductor>
  <BeginConductor>
    <ConductorName> = "cathode"
    <Vc> = 0
    <qc> = 0
    <ConductorType> = 1
  <EndConductor>
[NumPoints] = 27
0	-0.45000000000000001	0	0	0
18	-0.45000000000000001	0	0	0
18	-0.5	0	0	0
0	-0.5	0	0	0
0	-0.27000000000000002	0	0	0
0.90000000000000002	-0.26889103851576163	0	0	0
1.8	-0.2655805436325358	0	0	0
2.7000000000000002	-0.26011739574111131	0	0	0
3.6000000000000001	-0.25258210662293257	0	0	0
4.5	-0.24308540536241863	0	0	0
5.4000000000000004	-0.23176629666021775	0	0	0
6.2999999999999998	-0.21878962866263391	0	0	0
7.2000000000000002	-0.20434321673297742	0	0	0
8.0999999999999996	-0.18863457796793726	0	0	0
9	-0.17188733853924698	0	0	0
9.9000000000000004	-0.15433738197376684	0	0	0
10.800000000000001	-0.13622881115531826	0	0	0
11.700000000000001	-0.11780980004911057	0	0	0
12.6	-0.099328412854379045	0	0	0
13.5	-0.081028468454139552	0	0	0
14.4	-0.063145526655733156	0	0	0
15.300000000000001	-0.045903069836666713	0	0	0
16.199999999999999	-0.029508949292503989	0	0	0
17.100000000000001	-0.014152159921882157	0	0	0
18	-1.0525063947802314e-017	0	0	0
0	-90	0	0	0
0	90	0	0	0
[NumSegments] = 27
0	1	-1	0	0	0	0
1	2	-1	0	0	0	0
2	3	0.25	0	0	0	2
3	0	-1	0	0	0	0
4	5	0.25	0	0	0	1
5	6	0.25	0	0	0	1
6	7	0.25	0	0	0	1
7	8	0.25	0	0	0	1
8	9	0.25	0	0	0	1
9	10	0.25	0	0	0	1
10	11	0.25	0	0	0	1
11	12	0.25	0	0	0	1
12	13	0.25	0	0	0	1
13	14	0.25	0	0	0	1
14	15	0.25	0	0	0	1
15	16	0.25	0	0	0	1
16	17	0.25	0	0	0	1
17	18	0.25	0	0	0	1
18	19	0.25	0	0	0	1
19	20	0.25	0	0	0	1
20	21	0.25	0	0	0	1
21	22	0.25	0	0	0	1
22	23	0.25	0	0	0	1
23	24	0.25	0	0	0	1
25	3	-1	0	0	0	0
0	4	-1	0	0	0	0
4	26	-1	0	0	0	0
[NumArcSegments] = 1
25	26	180	2.5	1	0	0	0	1
[NumHoles] = 0
[NumBlockLabels] = 2
10	10	1	1	0	0
9	-0.47499999999999998	2	1	0	0
